tests/corpus/gaps/invcontrol_storage_vv_vw.dss
! GAPS deck: InvControl CombiMode=VV_VW over a Storage element — deterministic.
! The combined volt-var + volt-watt dispatch for Storage is the WP7.5
! NOT_PORTED branch.
Clear
New Circuit.gaps_icvvvw basekv=12.47 phases=3 bus1=sourcebus mvasc3=200 mvasc1=210
New XYcurve.vv npts=4 xarray=(0.5 0.95 1.05 1.5) yarray=(1.0 1.0 -1.0 -1.0)
New XYcurve.vw npts=4 xarray=(0.5 1.0 1.05 1.5) yarray=(1.0 1.0 0.2 0.2)
New Line.l1 bus1=sourcebus bus2=b1 phases=3 r1=1.0 x1=4.0 c1=0 length=3 units=km
New Load.ld1 bus1=b1 phases=3 kv=12.47 kw=200 pf=0.95 model=1
New Storage.batt bus1=b1 phases=3 kv=12.47 kva=400 kwrated=350 kwhrated=1400 %stored=80 state=discharging %discharge=100 dispmode=default
New InvControl.ic derlist=[storage.batt] combimode=VV_VW vvc_curve1=vv voltwatt_curve=vw voltage_curvex_ref=rated deltaq_factor=0.4 deltap_factor=0.4 eventlog=yes
New Monitor.m_b element=Storage.batt terminal=1 mode=1 ppolar=no
Set voltagebases=[12.47]
Calcvoltagebases
Set maxcontroliter=200
Set mode=daily stepsize=1h number=6
Solve
